REMARK  Name = ligand.pdb
REMARK  18 active torsions:
REMARK  status: ('A' for Active; 'I' for Inactive)
REMARK    1  A    between atoms: C1_1  and  C2_2
REMARK    2  A    between atoms: C2_2  and  C3_3
REMARK    3  A    between atoms: C2_2  and  C4_4
REMARK    4  A    between atoms: C2_2  and  O1_5
REMARK    5  A    between atoms: O1_5  and  C5_6
REMARK    6  A    between atoms: C8_9  and  C11_12
REMARK    7  A    between atoms: N1_14  and  C12_15
REMARK    8  A    between atoms: C14_17  and  C24_30
REMARK    9  A    between atoms: N2_21  and  C17_22
REMARK   10  A    between atoms: C17_22  and  C18_23
REMARK   11  A    between atoms: C18_23  and  C19_24
REMARK   12  A    between atoms: C19_24  and  C20_25
REMARK   13  A    between atoms: C20_25  and  C21_26
REMARK   14  A    between atoms: C21_26  and  C22_27
REMARK   15  A    between atoms: C21_26  and  C23_28
REMARK   16  A    between atoms: N3_32  and  C25_33
REMARK   17  A    between atoms: C25_33  and  C26_34
REMARK   18  A    between atoms: C25_33  and  C27_35
REMARK                            x       y       z     vdW  Elec       q    Type
REMARK                         _______ _______ _______ _____ _____    ______ ____
ROOT
ATOM      1  C12 UNL     1      -1.311  -1.723   1.837  0.00  0.00    +0.165 C 
ATOM      2  C13 UNL     1      -1.767  -3.080   1.275  0.00  0.00    +0.063 C 
ATOM      3  C14 UNL     1      -3.130  -3.497   1.846  0.00  0.00    +0.154 C 
ATOM      4  C15 UNL     1      -4.152  -2.421   1.603  0.00  0.00    +0.229 C 
ATOM      5  C16 UNL     1      -3.723  -1.018   1.504  0.00  0.00    +0.284 C 
ATOM      6  O3  UNL     1      -4.592  -0.120   1.337  0.00  0.00    -0.267 OA
ATOM      7  N2  UNL     1      -2.325  -0.671   1.614  0.00  0.00    -0.277 N 
ATOM      8  O4  UNL     1      -5.380  -2.704   1.566  0.00  0.00    -0.286 OA
ENDROOT
BRANCH   1  11
ATOM      9  C11 UNL     1       1.222  -1.443   1.839  0.00  0.00    +0.245 C 
ATOM     10  O2  UNL     1       1.333  -2.111   2.904  0.00  0.00    -0.270 OA
ATOM     11  N1  UNL     1      -0.052  -1.350   1.186  0.00  0.00    -0.293 N 
ATOM     12  H14 UNL     1      -0.083  -1.098   0.171  0.00  0.00    +0.151 HD
BRANCH   9  16
ATOM     13  C5  UNL     1       4.703   0.494   0.196  0.00  0.00    +0.121 A 
ATOM     14  C6  UNL     1       4.830  -0.605   1.052  0.00  0.00    +0.046 A 
ATOM     15  C7  UNL     1       3.703  -1.236   1.585  0.00  0.00    +0.016 A 
ATOM     16  C8  UNL     1       2.415  -0.776   1.268  0.00  0.00    +0.037 A 
ATOM     17  C9  UNL     1       2.283   0.338   0.421  0.00  0.00    +0.016 A 
ATOM     18  C10 UNL     1       3.412   0.964  -0.114  0.00  0.00    +0.046 A 
BRANCH  13  19
ATOM     19  O1  UNL     1       5.897   1.063  -0.290  0.00  0.00    -0.487 OA
BRANCH  19  21
ATOM     20  C1  UNL     1       5.516   1.740  -2.623  0.00  0.00    +0.055 C 
ATOM     21  C2  UNL     1       6.108   2.114  -1.249  0.00  0.00    +0.102 C 
ATOM     22  C3  UNL     1       5.559   3.464  -0.739  0.00  0.00    +0.055 C 
ATOM     23  C4  UNL     1       7.632   2.251  -1.411  0.00  0.00    +0.055 C 
ENDBRANCH  19  21
ENDBRANCH  13  19
ENDBRANCH   9  16
ENDBRANCH   1  11
BRANCH   3  24
ATOM     24  C24 UNL     1      -3.555  -4.817   1.249  0.00  0.00    +0.224 C 
ATOM     25  O5  UNL     1      -3.572  -5.847   1.976  0.00  0.00    -0.275 OA
ATOM     26  N3  UNL     1      -3.901  -4.907  -0.144  0.00  0.00    -0.312 N 
ATOM     27  H34 UNL     1      -3.907  -4.032  -0.717  0.00  0.00    +0.149 HD
BRANCH  26  28
ATOM     28  C25 UNL     1      -4.299  -6.172  -0.768  0.00  0.00    +0.067 C 
ATOM     29  C26 UNL     1      -4.009  -6.132  -2.272  0.00  0.00    +0.027 C 
ATOM     30  C27 UNL     1      -5.785  -6.438  -0.509  0.00  0.00    +0.027 C 
ENDBRANCH  26  28
ENDBRANCH   3  24
BRANCH   7  31
ATOM     31  C17 UNL     1      -1.950   0.740   1.808  0.00  0.00    +0.110 C 
BRANCH  31  32
ATOM     32  C18 UNL     1      -1.933   1.487   0.469  0.00  0.00    +0.019 C 
BRANCH  32  33
ATOM     33  C19 UNL     1      -1.414   2.919   0.646  0.00  0.00    +0.002 C 
BRANCH  33  34
ATOM     34  C20 UNL     1      -1.361   3.660  -0.700  0.00  0.00    +0.003 C 
BRANCH  34  35
ATOM     35  C21 UNL     1      -0.682   5.046  -0.591  0.00  0.00    -0.017 C 
ATOM     36  C22 UNL     1      -1.522   6.035   0.231  0.00  0.00    +0.007 C 
ATOM     37  C23 UNL     1      -0.430   5.622  -1.992  0.00  0.00    +0.007 C 
ENDBRANCH  34  35
ENDBRANCH  33  34
ENDBRANCH  32  33
ENDBRANCH  31  32
ENDBRANCH   7  31
TORSDOF 11
