MODEL 1
REMARK VINA RESULT:    -6.187      0.000      0.000
REMARK INTER + INTRA:         -11.186
REMARK INTER:                 -10.165
REMARK INTRA:                  -1.021
REMARK UNBOUND:                -1.021
REMARK  Name = ligand.pdb
REMARK  18 active torsions:
REMARK  status: ('A' for Active; 'I' for Inactive)
REMARK    1  A    between atoms: C1_1  and  C2_2
REMARK    2  A    between atoms: C2_2  and  C3_3
REMARK    3  A    between atoms: C2_2  and  C4_4
REMARK    4  A    between atoms: C2_2  and  O1_5
REMARK    5  A    between atoms: O1_5  and  C5_6
REMARK    6  A    between atoms: C8_9  and  C11_12
REMARK    7  A    between atoms: N1_14  and  C12_15
REMARK    8  A    between atoms: C14_17  and  C24_30
REMARK    9  A    between atoms: N2_21  and  C17_22
REMARK   10  A    between atoms: C17_22  and  C18_23
REMARK   11  A    between atoms: C18_23  and  C19_24
REMARK   12  A    between atoms: C19_24  and  C20_25
REMARK   13  A    between atoms: C20_25  and  C21_26
REMARK   14  A    between atoms: C21_26  and  C22_27
REMARK   15  A    between atoms: C21_26  and  C23_28
REMARK   16  A    between atoms: N3_32  and  C25_33
REMARK   17  A    between atoms: C25_33  and  C26_34
REMARK   18  A    between atoms: C25_33  and  C27_35
REMARK                            x       y       z     vdW  Elec       q    Type
REMARK                         _______ _______ _______ _____ _____    ______ ____
ROOT
ATOM      1  C12 UNL     1       8.910  12.656  11.735  0.00  0.00    +0.165 C 
ATOM      2  C13 UNL     1       8.704  13.850  12.683  0.00  0.00    +0.063 C 
ATOM      3  C14 UNL     1       9.835  13.951  13.716  0.00  0.00    +0.154 C 
ATOM      4  C15 UNL     1      11.171  14.008  13.028  0.00  0.00    +0.229 C 
ATOM      5  C16 UNL     1      11.343  13.367  11.716  0.00  0.00    +0.284 C 
ATOM      6  O3  UNL     1      12.476  13.390  11.164  0.00  0.00    -0.267 OA
ATOM      7  N2  UNL     1      10.231  12.705  11.074  0.00  0.00    -0.277 N 
ATOM      8  O4  UNL     1      12.164  14.530  13.604  0.00  0.00    -0.286 OA
ENDROOT
BRANCH   1  11
ATOM      9  C11 UNL     1       6.451  12.690  11.066  0.00  0.00    +0.245 C 
ATOM     10  O2  UNL     1       6.095  12.968  12.244  0.00  0.00    -0.270 OA
ATOM     11  N1  UNL     1       7.845  12.674  10.728  0.00  0.00    -0.293 N 
ATOM     12  H14 UNL     1       8.124  12.777   9.725  0.00  0.00    +0.151 HD
BRANCH   9  16
ATOM     13  C5  UNL     1       3.463  11.858   8.074  0.00  0.00    +0.121 A 
ATOM     14  C6  UNL     1       4.741  12.294   7.710  0.00  0.00    +0.046 A 
ATOM     15  C7  UNL     1       5.713  12.563   8.678  0.00  0.00    +0.016 A 
ATOM     16  C8  UNL     1       5.421  12.399  10.041  0.00  0.00    +0.037 A 
ATOM     17  C9  UNL     1       4.133  11.976  10.413  0.00  0.00    +0.016 A 
ATOM     18  C10 UNL     1       3.165  11.704   9.442  0.00  0.00    +0.046 A 
BRANCH  13  19
ATOM     19  O1  UNL     1       2.552  11.614   7.027  0.00  0.00    -0.487 OA
BRANCH  19  21
ATOM     20  C1  UNL     1       1.256  10.663   5.167  0.00  0.00    +0.055 C 
ATOM     21  C2  UNL     1       2.255  10.402   6.312  0.00  0.00    +0.102 C 
ATOM     22  C3  UNL     1       3.540   9.714   5.803  0.00  0.00    +0.055 C 
ATOM     23  C4  UNL     1       1.580   9.459   7.324  0.00  0.00    +0.055 C 
ENDBRANCH  19  21
ENDBRANCH  13  19
ENDBRANCH   9  16
ENDBRANCH   1  11
BRANCH   3  24
ATOM     24  C24 UNL     1       9.613  15.149  14.607  0.00  0.00    +0.224 C 
ATOM     25  O5  UNL     1       9.310  16.257  14.087  0.00  0.00    -0.275 OA
ATOM     26  N3  UNL     1       9.781  15.038  16.031  0.00  0.00    -0.312 N 
ATOM     27  H34 UNL     1      10.004  14.101  16.438  0.00  0.00    +0.149 HD
BRANCH  26  28
ATOM     28  C25 UNL     1       9.595  16.181  16.929  0.00  0.00    +0.067 C 
ATOM     29  C26 UNL     1      10.955  16.755  17.340  0.00  0.00    +0.027 C 
ATOM     30  C27 UNL     1       8.792  15.753  18.161  0.00  0.00    +0.027 C 
ENDBRANCH  26  28
ENDBRANCH   3  24
BRANCH   7  31
ATOM     31  C17 UNL     1      10.488  11.827   9.920  0.00  0.00    +0.110 C 
BRANCH  31  32
ATOM     32  C18 UNL     1      10.438  10.352  10.338  0.00  0.00    +0.019 C 
BRANCH  32  33
ATOM     33  C19 UNL     1      11.839   9.729  10.322  0.00  0.00    +0.002 C 
BRANCH  33  34
ATOM     34  C20 UNL     1      11.768   8.200  10.467  0.00  0.00    +0.003 C 
BRANCH  34  35
ATOM     35  C21 UNL     1      10.350   7.702  10.836  0.00  0.00    -0.017 C 
ATOM     36  C22 UNL     1      10.296   7.121  12.257  0.00  0.00    +0.007 C 
ATOM     37  C23 UNL     1       9.884   6.643   9.826  0.00  0.00    +0.007 C 
ENDBRANCH  34  35
ENDBRANCH  33  34
ENDBRANCH  32  33
ENDBRANCH  31  32
ENDBRANCH   7  31
TORSDOF 11
ENDMDL
MODEL 2
REMARK VINA RESULT:    -6.091      4.936      8.623
REMARK INTER + INTRA:         -11.029
REMARK INTER:                  -9.809
REMARK INTRA:                  -1.220
REMARK UNBOUND:                -1.021
REMARK  Name = ligand.pdb
REMARK  18 active torsions:
REMARK  status: ('A' for Active; 'I' for Inactive)
REMARK    1  A    between atoms: C1_1  and  C2_2
REMARK    2  A    between atoms: C2_2  and  C3_3
REMARK    3  A    between atoms: C2_2  and  C4_4
REMARK    4  A    between atoms: C2_2  and  O1_5
REMARK    5  A    between atoms: O1_5  and  C5_6
REMARK    6  A    between atoms: C8_9  and  C11_12
REMARK    7  A    between atoms: N1_14  and  C12_15
REMARK    8  A    between atoms: C14_17  and  C24_30
REMARK    9  A    between atoms: N2_21  and  C17_22
REMARK   10  A    between atoms: C17_22  and  C18_23
REMARK   11  A    between atoms: C18_23  and  C19_24
REMARK   12  A    between atoms: C19_24  and  C20_25
REMARK   13  A    between atoms: C20_25  and  C21_26
REMARK   14  A    between atoms: C21_26  and  C22_27
REMARK   15  A    between atoms: C21_26  and  C23_28
REMARK   16  A    between atoms: N3_32  and  C25_33
REMARK   17  A    between atoms: C25_33  and  C26_34
REMARK   18  A    between atoms: C25_33  and  C27_35
REMARK                            x       y       z     vdW  Elec       q    Type
REMARK                         _______ _______ _______ _____ _____    ______ ____
ROOT
ATOM      1  C12 UNL     1      13.183   8.674   9.810  0.00  0.00    +0.165 C 
ATOM      2  C13 UNL     1      14.601   9.024  10.291  0.00  0.00    +0.063 C 
ATOM      3  C14 UNL     1      15.642   8.037   9.743  0.00  0.00    +0.154 C 
ATOM      4  C15 UNL     1      15.563   7.970   8.243  0.00  0.00    +0.229 C 
ATOM      5  C16 UNL     1      14.284   8.239   7.568  0.00  0.00    +0.284 C 
ATOM      6  O3  UNL     1      14.220   8.144   6.313  0.00  0.00    -0.267 OA
ATOM      7  N2  UNL     1      13.112   8.590   8.336  0.00  0.00    -0.277 N 
ATOM      8  O4  UNL     1      16.563   7.606   7.567  0.00  0.00    -0.286 OA
ENDROOT
BRANCH   1  11
ATOM      9  C11 UNL     1      12.453  11.103  10.056  0.00  0.00    +0.245 C 
ATOM     10  O2  UNL     1      13.279  11.480   9.179  0.00  0.00    -0.270 OA
ATOM     11  N1  UNL     1      12.260   9.702  10.298  0.00  0.00    -0.293 N 
ATOM     12  H14 UNL     1      11.375   9.386  10.757  0.00  0.00    +0.151 HD
BRANCH   9  16
ATOM     13  C5  UNL     1      10.198  14.049  12.248  0.00  0.00    +0.121 A 
ATOM     14  C6  UNL     1       9.556  13.128  11.413  0.00  0.00    +0.046 A 
ATOM     15  C7  UNL     1      10.284  12.171  10.702  0.00  0.00    +0.016 A 
ATOM     16  C8  UNL     1      11.683  12.115  10.815  0.00  0.00    +0.037 A 
ATOM     17  C9  UNL     1      12.333  13.048  11.640  0.00  0.00    +0.016 A 
ATOM     18  C10 UNL     1      11.601  14.002  12.353  0.00  0.00    +0.046 A 
BRANCH  13  19
ATOM     19  O1  UNL     1       9.378  14.975  12.922  0.00  0.00    -0.487 OA
BRANCH  19  21
ATOM     20  C1  UNL     1       7.431  16.165  12.004  0.00  0.00    +0.055 C 
ATOM     21  C2  UNL     1       8.886  16.262  12.508  0.00  0.00    +0.102 C 
ATOM     22  C3  UNL     1       9.033  17.312  13.630  0.00  0.00    +0.055 C 
ATOM     23  C4  UNL     1       9.768  16.701  11.327  0.00  0.00    +0.055 C 
ENDBRANCH  19  21
ENDBRANCH  13  19
ENDBRANCH   9  16
ENDBRANCH   1  11
BRANCH   3  24
ATOM     24  C24 UNL     1      17.021   8.432  10.213  0.00  0.00    +0.224 C 
ATOM     25  O5  UNL     1      17.610   7.718  11.070  0.00  0.00    -0.275 OA
ATOM     26  N3  UNL     1      17.643   9.630   9.718  0.00  0.00    -0.312 N 
ATOM     27  H34 UNL     1      17.146  10.188   8.986  0.00  0.00    +0.149 HD
BRANCH  26  28
ATOM     28  C25 UNL     1      18.972  10.060  10.163  0.00  0.00    +0.067 C 
ATOM     29  C26 UNL     1      19.011  11.585  10.310  0.00  0.00    +0.027 C 
ATOM     30  C27 UNL     1      20.036   9.583   9.170  0.00  0.00    +0.027 C 
ENDBRANCH  26  28
ENDBRANCH   3  24
BRANCH   7  31
ATOM     31  C17 UNL     1      11.793   8.564   7.682  0.00  0.00    +0.110 C 
BRANCH  31  32
ATOM     32  C18 UNL     1      11.368   7.123   7.372  0.00  0.00    +0.019 C 
BRANCH  32  33
ATOM     33  C19 UNL     1      11.072   6.349   8.663  0.00  0.00    +0.002 C 
BRANCH  33  34
ATOM     34  C20 UNL     1      10.004   7.065   9.506  0.00  0.00    +0.003 C 
BRANCH  34  35
ATOM     35  C21 UNL     1       9.832   6.435  10.909  0.00  0.00    -0.017 C 
ATOM     36  C22 UNL     1       8.368   6.076  11.202  0.00  0.00    +0.007 C 
ATOM     37  C23 UNL     1      10.354   7.396  11.987  0.00  0.00    +0.007 C 
ENDBRANCH  34  35
ENDBRANCH  33  34
ENDBRANCH  32  33
ENDBRANCH  31  32
ENDBRANCH   7  31
TORSDOF 11
ENDMDL
MODEL 3
REMARK VINA RESULT:    -5.974      7.033     10.734
REMARK INTER + INTRA:         -10.837
REMARK INTER:                  -9.548
REMARK INTRA:                  -1.289
REMARK UNBOUND:                -1.021
REMARK  Name = ligand.pdb
REMARK  18 active torsions:
REMARK  status: ('A' for Active; 'I' for Inactive)
REMARK    1  A    between atoms: C1_1  and  C2_2
REMARK    2  A    between atoms: C2_2  and  C3_3
REMARK    3  A    between atoms: C2_2  and  C4_4
REMARK    4  A    between atoms: C2_2  and  O1_5
REMARK    5  A    between atoms: O1_5  and  C5_6
REMARK    6  A    between atoms: C8_9  and  C11_12
REMARK    7  A    between atoms: N1_14  and  C12_15
REMARK    8  A    between atoms: C14_17  and  C24_30
REMARK    9  A    between atoms: N2_21  and  C17_22
REMARK   10  A    between atoms: C17_22  and  C18_23
REMARK   11  A    between atoms: C18_23  and  C19_24
REMARK   12  A    between atoms: C19_24  and  C20_25
REMARK   13  A    between atoms: C20_25  and  C21_26
REMARK   14  A    between atoms: C21_26  and  C22_27
REMARK   15  A    between atoms: C21_26  and  C23_28
REMARK   16  A    between atoms: N3_32  and  C25_33
REMARK   17  A    between atoms: C25_33  and  C26_34
REMARK   18  A    between atoms: C25_33  and  C27_35
REMARK                            x       y       z     vdW  Elec       q    Type
REMARK                         _______ _______ _______ _____ _____    ______ ____
ROOT
ATOM      1  C12 UNL     1      12.437   7.034   4.402  0.00  0.00    +0.165 C 
ATOM      2  C13 UNL     1      13.433   5.931   4.006  0.00  0.00    +0.063 C 
ATOM      3  C14 UNL     1      14.886   6.399   4.167  0.00  0.00    +0.154 C 
ATOM      4  C15 UNL     1      15.127   6.891   5.568  0.00  0.00    +0.229 C 
ATOM      5  C16 UNL     1      14.013   7.461   6.341  0.00  0.00    +0.284 C 
ATOM      6  O3  UNL     1      14.234   7.904   7.500  0.00  0.00    -0.267 OA
ATOM      7  N2  UNL     1      12.687   7.529   5.772  0.00  0.00    -0.277 N 
ATOM      8  O4  UNL     1      16.291   6.893   6.052  0.00  0.00    -0.286 OA
ENDROOT
BRANCH   1  11
ATOM      9  C11 UNL     1      10.244   6.673   3.155  0.00  0.00    +0.245 C 
ATOM     10  O2  UNL     1      10.751   7.075   2.071  0.00  0.00    -0.270 OA
ATOM     11  N1  UNL     1      11.080   6.490   4.307  0.00  0.00    -0.293 N 
ATOM     12  H14 UNL     1      10.750   5.862   5.076  0.00  0.00    +0.151 HD
BRANCH   9  16
ATOM     13  C5  UNL     1       6.023   5.833   3.359  0.00  0.00    +0.121 A 
ATOM     14  C6  UNL     1       6.538   7.042   3.837  0.00  0.00    +0.046 A 
ATOM     15  C7  UNL     1       7.906   7.318   3.771  0.00  0.00    +0.016 A 
ATOM     16  C8  UNL     1       8.793   6.381   3.218  0.00  0.00    +0.037 A 
ATOM     17  C9  UNL     1       8.282   5.158   2.751  0.00  0.00    +0.016 A 
ATOM     18  C10 UNL     1       6.913   4.887   2.815  0.00  0.00    +0.046 A 
BRANCH  13  19
ATOM     19  O1  UNL     1       4.630   5.646   3.469  0.00  0.00    -0.487 OA
BRANCH  19  21
ATOM     20  C1  UNL     1       3.988   5.883   5.831  0.00  0.00    +0.055 C 
ATOM     21  C2  UNL     1       3.847   5.070   4.529  0.00  0.00    +0.102 C 
ATOM     22  C3  UNL     1       2.368   4.907   4.115  0.00  0.00    +0.055 C 
ATOM     23  C4  UNL     1       4.427   3.667   4.781  0.00  0.00    +0.055 C 
ENDBRANCH  19  21
ENDBRANCH  13  19
ENDBRANCH   9  16
ENDBRANCH   1  11
BRANCH   3  24
ATOM     24  C24 UNL     1      15.831   5.281   3.797  0.00  0.00    +0.224 C 
ATOM     25  O5  UNL     1      16.289   5.222   2.624  0.00  0.00    -0.275 OA
ATOM     26  N3  UNL     1      16.176   4.272   4.761  0.00  0.00    -0.312 N 
ATOM     27  H34 UNL     1      15.805   4.361   5.736  0.00  0.00    +0.149 HD
BRANCH  26  28
ATOM     28  C25 UNL     1      17.072   3.158   4.438  0.00  0.00    +0.067 C 
ATOM     29  C26 UNL     1      16.259   1.889   4.165  0.00  0.00    +0.027 C 
ATOM     30  C27 UNL     1      18.061   2.933   5.585  0.00  0.00    +0.027 C 
ENDBRANCH  26  28
ENDBRANCH   3  24
BRANCH   7  31
ATOM     31  C17 UNL     1      11.666   8.359   6.433  0.00  0.00    +0.110 C 
BRANCH  31  32
ATOM     32  C18 UNL     1      10.654   7.483   7.182  0.00  0.00    +0.019 C 
BRANCH  32  33
ATOM     33  C19 UNL     1      11.224   7.016   8.527  0.00  0.00    +0.002 C 
BRANCH  33  34
ATOM     34  C20 UNL     1      10.132   6.978   9.608  0.00  0.00    +0.003 C 
BRANCH  34  35
ATOM     35  C21 UNL     1      10.428   7.934  10.788  0.00  0.00    -0.017 C 
ATOM     36  C22 UNL     1      11.805   8.603  10.655  0.00  0.00    +0.007 C 
ATOM     37  C23 UNL     1      10.351   7.171  12.119  0.00  0.00    +0.007 C 
ENDBRANCH  34  35
ENDBRANCH  33  34
ENDBRANCH  32  33
ENDBRANCH  31  32
ENDBRANCH   7  31
TORSDOF 11
ENDMDL
MODEL 4
REMARK VINA RESULT:    -5.936      3.908      6.639
REMARK INTER + INTRA:         -10.774
REMARK INTER:                  -8.025
REMARK INTRA:                  -2.749
REMARK UNBOUND:                -1.021
REMARK  Name = ligand.pdb
REMARK  18 active torsions:
REMARK  status: ('A' for Active; 'I' for Inactive)
REMARK    1  A    between atoms: C1_1  and  C2_2
REMARK    2  A    between atoms: C2_2  and  C3_3
REMARK    3  A    between atoms: C2_2  and  C4_4
REMARK    4  A    between atoms: C2_2  and  O1_5
REMARK    5  A    between atoms: O1_5  and  C5_6
REMARK    6  A    between atoms: C8_9  and  C11_12
REMARK    7  A    between atoms: N1_14  and  C12_15
REMARK    8  A    between atoms: C14_17  and  C24_30
REMARK    9  A    between atoms: N2_21  and  C17_22
REMARK   10  A    between atoms: C17_22  and  C18_23
REMARK   11  A    between atoms: C18_23  and  C19_24
REMARK   12  A    between atoms: C19_24  and  C20_25
REMARK   13  A    between atoms: C20_25  and  C21_26
REMARK   14  A    between atoms: C21_26  and  C22_27
REMARK   15  A    between atoms: C21_26  and  C23_28
REMARK   16  A    between atoms: N3_32  and  C25_33
REMARK   17  A    between atoms: C25_33  and  C26_34
REMARK   18  A    between atoms: C25_33  and  C27_35
REMARK                            x       y       z     vdW  Elec       q    Type
REMARK                         _______ _______ _______ _____ _____    ______ ____
ROOT
ATOM      1  C12 UNL     1      10.124  11.055  10.567  0.00  0.00    +0.165 C 
ATOM      2  C13 UNL     1       8.816  11.861  10.498  0.00  0.00    +0.063 C 
ATOM      3  C14 UNL     1       8.643  12.761  11.730  0.00  0.00    +0.154 C 
ATOM      4  C15 UNL     1       9.840  13.655  11.900  0.00  0.00    +0.229 C 
ATOM      5  C16 UNL     1      11.155  13.211  11.413  0.00  0.00    +0.284 C 
ATOM      6  O3  UNL     1      12.159  13.952  11.593  0.00  0.00    -0.267 OA
ATOM      7  N2  UNL     1      11.298  11.934  10.753  0.00  0.00    -0.277 N 
ATOM      8  O4  UNL     1       9.740  14.743  12.528  0.00  0.00    -0.286 OA
ENDROOT
BRANCH   1  11
ATOM      9  C11 UNL     1      10.370   8.859   9.299  0.00  0.00    +0.245 C 
ATOM     10  O2  UNL     1      10.069   8.189  10.324  0.00  0.00    -0.270 OA
ATOM     11  N1  UNL     1      10.264  10.289   9.326  0.00  0.00    -0.293 N 
ATOM     12  H14 UNL     1      10.186  10.808   8.421  0.00  0.00    +0.151 HD
BRANCH   9  16
ATOM     13  C5  UNL     1      11.651   6.828   5.720  0.00  0.00    +0.121 A 
ATOM     14  C6  UNL     1      11.313   8.185   5.694  0.00  0.00    +0.046 A 
ATOM     15  C7  UNL     1      10.899   8.846   6.853  0.00  0.00    +0.016 A 
ATOM     16  C8  UNL     1      10.815   8.157   8.072  0.00  0.00    +0.037 A 
ATOM     17  C9  UNL     1      11.138   6.789   8.101  0.00  0.00    +0.016 A 
ATOM     18  C10 UNL     1      11.556   6.131   6.941  0.00  0.00    +0.046 A 
BRANCH  13  19
ATOM     19  O1  UNL     1      12.056   6.249   4.501  0.00  0.00    -0.487 OA
BRANCH  19  21
ATOM     20  C1  UNL     1       9.836   6.275   3.443  0.00  0.00    +0.055 C 
ATOM     21  C2  UNL     1      11.277   5.725   3.411  0.00  0.00    +0.102 C 
ATOM     22  C3  UNL     1      11.959   5.988   2.051  0.00  0.00    +0.055 C 
ATOM     23  C4  UNL     1      11.207   4.203   3.623  0.00  0.00    +0.055 C 
ENDBRANCH  19  21
ENDBRANCH  13  19
ENDBRANCH   9  16
ENDBRANCH   1  11
BRANCH   3  24
ATOM     24  C24 UNL     1       7.365  13.555  11.611  0.00  0.00    +0.224 C 
ATOM     25  O5  UNL     1       6.370  13.235  12.318  0.00  0.00    -0.275 OA
ATOM     26  N3  UNL     1       7.269  14.641  10.673  0.00  0.00    -0.312 N 
ATOM     27  H34 UNL     1       8.117  14.904  10.121  0.00  0.00    +0.149 HD
BRANCH  26  28
ATOM     28  C25 UNL     1       6.040  15.425  10.511  0.00  0.00    +0.067 C 
ATOM     29  C26 UNL     1       5.498  15.265   9.087  0.00  0.00    +0.027 C 
ATOM     30  C27 UNL     1       6.315  16.898  10.825  0.00  0.00    +0.027 C 
ENDBRANCH  26  28
ENDBRANCH   3  24
BRANCH   7  31
ATOM     31  C17 UNL     1      12.648  11.384  10.542  0.00  0.00    +0.110 C 
BRANCH  31  32
ATOM     32  C18 UNL     1      13.104  11.601   9.094  0.00  0.00    +0.019 C 
BRANCH  32  33
ATOM     33  C19 UNL     1      13.841  10.367   8.560  0.00  0.00    +0.002 C 
BRANCH  33  34
ATOM     34  C20 UNL     1      13.921   9.263   9.628  0.00  0.00    +0.003 C 
BRANCH  34  35
ATOM     35  C21 UNL     1      14.580   7.968   9.098  0.00  0.00    -0.017 C 
ATOM     36  C22 UNL     1      15.965   7.731   9.719  0.00  0.00    +0.007 C 
ATOM     37  C23 UNL     1      14.703   8.026   7.568  0.00  0.00    +0.007 C 
ENDBRANCH  34  35
ENDBRANCH  33  34
ENDBRANCH  32  33
ENDBRANCH  31  32
ENDBRANCH   7  31
TORSDOF 11
ENDMDL
MODEL 5
REMARK VINA RESULT:    -5.903      1.837      2.361
REMARK INTER + INTRA:         -10.719
REMARK INTER:                  -9.437
REMARK INTRA:                  -1.282
REMARK UNBOUND:                -1.021
REMARK  Name = ligand.pdb
REMARK  18 active torsions:
REMARK  status: ('A' for Active; 'I' for Inactive)
REMARK    1  A    between atoms: C1_1  and  C2_2
REMARK    2  A    between atoms: C2_2  and  C3_3
REMARK    3  A    between atoms: C2_2  and  C4_4
REMARK    4  A    between atoms: C2_2  and  O1_5
REMARK    5  A    between atoms: O1_5  and  C5_6
REMARK    6  A    between atoms: C8_9  and  C11_12
REMARK    7  A    between atoms: N1_14  and  C12_15
REMARK    8  A    between atoms: C14_17  and  C24_30
REMARK    9  A    between atoms: N2_21  and  C17_22
REMARK   10  A    between atoms: C17_22  and  C18_23
REMARK   11  A    between atoms: C18_23  and  C19_24
REMARK   12  A    between atoms: C19_24  and  C20_25
REMARK   13  A    between atoms: C20_25  and  C21_26
REMARK   14  A    between atoms: C21_26  and  C22_27
REMARK   15  A    between atoms: C21_26  and  C23_28
REMARK   16  A    between atoms: N3_32  and  C25_33
REMARK   17  A    between atoms: C25_33  and  C26_34
REMARK   18  A    between atoms: C25_33  and  C27_35
REMARK                            x       y       z     vdW  Elec       q    Type
REMARK                         _______ _______ _______ _____ _____    ______ ____
ROOT
ATOM      1  C12 UNL     1       9.401  12.772  12.350  0.00  0.00    +0.165 C 
ATOM      2  C13 UNL     1       9.314  13.843  13.450  0.00  0.00    +0.063 C 
ATOM      3  C14 UNL     1      10.674  14.066  14.128  0.00  0.00    +0.154 C 
ATOM      4  C15 UNL     1      11.722  14.402  13.104  0.00  0.00    +0.229 C 
ATOM      5  C16 UNL     1      11.588  13.893  11.731  0.00  0.00    +0.284 C 
ATOM      6  O3  UNL     1      12.491  14.150  10.890  0.00  0.00    -0.267 OA
ATOM      7  N2  UNL     1      10.444  13.095  11.355  0.00  0.00    -0.277 N 
ATOM      8  O4  UNL     1      12.754  15.046  13.435  0.00  0.00    -0.286 OA
ENDROOT
BRANCH   1  11
ATOM      9  C11 UNL     1       7.343  13.825  11.278  0.00  0.00    +0.245 C 
ATOM     10  O2  UNL     1       7.905  14.953  11.216  0.00  0.00    -0.270 OA
ATOM     11  N1  UNL     1       8.095  12.676  11.692  0.00  0.00    -0.293 N 
ATOM     12  H14 UNL     1       7.749  11.724  11.430  0.00  0.00    +0.151 HD
BRANCH   9  16
ATOM     13  C5  UNL     1       3.185  13.449  10.209  0.00  0.00    +0.121 A 
ATOM     14  C6  UNL     1       3.579  13.502  11.550  0.00  0.00    +0.046 A 
ATOM     15  C7  UNL     1       4.927  13.626  11.900  0.00  0.00    +0.016 A 
ATOM     16  C8  UNL     1       5.914  13.700  10.905  0.00  0.00    +0.037 A 
ATOM     17  C9  UNL     1       5.524  13.631   9.556  0.00  0.00    +0.016 A 
ATOM     18  C10 UNL     1       4.175  13.512   9.210  0.00  0.00    +0.046 A 
BRANCH  13  19
ATOM     19  O1  UNL     1       1.804  13.323   9.957  0.00  0.00    -0.487 OA
BRANCH  19  21
ATOM     20  C1  UNL     1       1.757  10.871   9.785  0.00  0.00    +0.055 C 
ATOM     21  C2  UNL     1       0.949  12.167   9.996  0.00  0.00    +0.102 C 
ATOM     22  C3  UNL     1       0.122  12.119  11.299  0.00  0.00    +0.055 C 
ATOM     23  C4  UNL     1      -0.029  12.314   8.817  0.00  0.00    +0.055 C 
ENDBRANCH  19  21
ENDBRANCH  13  19
ENDBRANCH   9  16
ENDBRANCH   1  11
BRANCH   3  24
ATOM     24  C24 UNL     1      10.553  15.143  15.180  0.00  0.00    +0.224 C 
ATOM     25  O5  UNL     1       9.813  16.140  14.961  0.00  0.00    -0.275 OA
ATOM     26  N3  UNL     1      11.304  15.051  16.403  0.00  0.00    -0.312 N 
ATOM     27  H34 UNL     1      11.887  14.200  16.571  0.00  0.00    +0.149 HD
BRANCH  26  28
ATOM     28  C25 UNL     1      11.232  16.084  17.440  0.00  0.00    +0.067 C 
ATOM     29  C26 UNL     1      12.643  16.533  17.835  0.00  0.00    +0.027 C 
ATOM     30  C27 UNL     1      10.472  15.550  18.658  0.00  0.00    +0.027 C 
ENDBRANCH  26  28
ENDBRANCH   3  24
BRANCH   7  31
ATOM     31  C17 UNL     1      10.474  12.357  10.080  0.00  0.00    +0.110 C 
BRANCH  31  32
ATOM     32  C18 UNL     1      10.522  10.845  10.329  0.00  0.00    +0.019 C 
BRANCH  32  33
ATOM     33  C19 UNL     1      11.964  10.326  10.279  0.00  0.00    +0.002 C 
BRANCH  33  34
ATOM     34  C20 UNL     1      12.045   8.866  10.754  0.00  0.00    +0.003 C 
BRANCH  34  35
ATOM     35  C21 UNL     1      10.672   8.153  10.725  0.00  0.00    -0.017 C 
ATOM     36  C22 UNL     1      10.390   7.396  12.032  0.00  0.00    +0.007 C 
ATOM     37  C23 UNL     1      10.608   7.180   9.540  0.00  0.00    +0.007 C 
ENDBRANCH  34  35
ENDBRANCH  33  34
ENDBRANCH  32  33
ENDBRANCH  31  32
ENDBRANCH   7  31
TORSDOF 11
ENDMDL
